CM Steel BOX effect
CE
GW	100	1	-15	-15	30	-15	-15	22.5	0.682093
GW	101	1	-15	-15	22.5	-15	-15	15	0.682093
GW	102	1	-15	-15	15	-15	-15	7.5	0.682093
GW	103	1	-15	-15	7.5	-15	-15	0	0.682093
GW	104	1	-5	-15	30	-5	-15	22.5	0.682093
GW	105	1	-5	-15	22.5	-5	-15	15	0.682093
GW	106	1	-5	-15	15	-5	-15	7.5	0.682093
GW	107	1	-5	-15	7.5	-5	-15	0	0.682093
GW	108	1	5	-15	30	5	-15	22.5	0.682093
GW	109	1	5	-15	22.5	5	-15	15	0.682093
GW	110	1	5	-15	15	5	-15	7.5	0.682093
GW	111	1	5	-15	7.5	5	-15	0	0.682093
GW	112	1	15	-15	30	15	-15	22.5	0.682093
GW	113	1	15	-15	22.5	15	-15	15	0.682093
GW	114	1	15	-15	15	15	-15	7.5	0.682093
GW	115	1	15	-15	7.5	15	-15	0	0.682093
GW	116	1	-15	-15	30	-5	-15	30	0.682093
GW	117	1	-5	-15	30	5	-15	30	0.682093
GW	118	1	5	-15	30	15	-15	30	0.682093
GW	119	1	-15	-15	22.5	-5	-15	22.5	0.682093
GW	120	1	-5	-15	22.5	5	-15	22.5	0.682093
GW	121	1	5	-15	22.5	15	-15	22.5	0.682093
GW	122	1	-15	-15	15	-5	-15	15	0.682093
GW	123	1	-5	-15	15	5	-15	15	0.682093
GW	124	1	5	-15	15	15	-15	15	0.682093
GW	125	1	-15	-15	7.5	-5	-15	7.5	0.682093
GW	126	1	-5	-15	7.5	5	-15	7.5	0.682093
GW	127	1	5	-15	7.5	15	-15	7.5	0.682093
GW	131	1	-15	15	30	-15	15	22.5	0.682093
GW	132	1	-15	15	22.5	-15	15	15	0.682093
GW	133	1	-15	15	15	-15	15	7.5	0.682093
GW	134	1	-15	15	7.5	-15	15	0	0.682093
GW	135	1	-5	15	30	-5	15	22.5	0.682093
GW	136	1	-5	15	22.5	-5	15	15	0.682093
GW	137	1	-5	15	15	-5	15	7.5	0.682093
GW	138	1	-5	15	7.5	-5	15	0	0.682093
GW	139	1	5	15	30	5	15	22.5	0.682093
GW	140	1	5	15	22.5	5	15	15	0.682093
GW	141	1	5	15	15	5	15	7.5	0.682093
GW	142	1	5	15	7.5	5	15	0	0.682093
GW	143	1	15	15	30	15	15	22.5	0.682093
GW	144	1	15	15	22.5	15	15	15	0.682093
GW	145	1	15	15	15	15	15	7.5	0.682093
GW	146	1	15	15	7.5	15	15	0	0.682093
GW	147	1	-15	15	30	-5	15	30	0.682093
GW	148	1	-5	15	30	5	15	30	0.682093
GW	149	1	5	15	30	15	15	30	0.682093
GW	150	1	-15	15	22.5	-5	15	22.5	0.682093
GW	151	1	-5	15	22.5	5	15	22.5	0.682093
GW	152	1	5	15	22.5	15	15	22.5	0.682093
GW	153	1	-15	15	15	-5	15	15	0.682093
GW	154	1	-5	15	15	5	15	15	0.682093
GW	155	1	5	15	15	15	15	15	0.682093
GW	156	1	-15	15	7.5	-5	15	7.5	0.682093
GW	157	1	-5	15	7.5	5	15	7.5	0.682093
GW	158	1	5	15	7.5	15	15	7.5	0.682093
GW	162	1	-15	-15	30	-15	-7.5	30	0.596831
GW	163	1	-15	-7.5	30	-15	0	30	0.596831
GW	164	1	-15	0	30	-15	7.5	30	0.596831
GW	165	1	-15	7.5	30	-15	15	30	0.596831
GW	166	1	-15	-15	22.5	-15	-7.5	22.5	0.596831
GW	167	1	-15	-7.5	22.5	-15	0	22.5	0.596831
GW	168	1	-15	0	22.5	-15	7.5	22.5	0.596831
GW	169	1	-15	7.5	22.5	-15	15	22.5	0.596831
GW	170	1	-15	-15	15	-15	-7.5	15	0.596831
GW	171	1	-15	-7.5	15	-15	0	15	0.596831
GW	172	1	-15	0	15	-15	7.5	15	0.596831
GW	173	1	-15	7.5	15	-15	15	15	0.596831
GW	174	1	-15	-15	7.5	-15	-7.5	7.5	0.596831
GW	175	1	-15	-7.5	7.5	-15	0	7.5	0.596831
GW	176	1	-15	0	7.5	-15	7.5	7.5	0.596831
GW	177	1	-15	7.5	7.5	-15	15	7.5	0.596831
GW	182	1	-15	-7.5	30	-15	-7.5	22.5	0.596831
GW	183	1	-15	-7.5	22.5	-15	-7.5	15	0.596831
GW	184	1	-15	-7.5	15	-15	-7.5	7.5	0.596831
GW	185	1	-15	-7.5	7.5	-15	-7.5	0	0.596831
GW	186	1	-15	0	30	-15	0	22.5	0.596831
GW	187	1	-15	0	22.5	-15	0	15	0.596831
GW	188	1	-15	0	15	-15	0	7.5	0.596831
GW	189	1	-15	0	7.5	-15	0	0	0.596831
GW	190	1	-15	7.5	30	-15	7.5	22.5	0.596831
GW	191	1	-15	7.5	22.5	-15	7.5	15	0.596831
GW	192	1	-15	7.5	15	-15	7.5	7.5	0.596831
GW	193	1	-15	7.5	7.5	-15	7.5	0	0.596831
GW	194	1	15	-15	30	15	-7.5	30	0.596831
GW	195	1	15	-7.5	30	15	0	30	0.596831
GW	196	1	15	0	30	15	7.5	30	0.596831
GW	197	1	15	7.5	30	15	15	30	0.596831
GW	198	1	15	-15	22.5	15	-7.5	22.5	0.596831
GW	199	1	15	-7.5	22.5	15	0	22.5	0.596831
GW	200	1	15	0	22.5	15	7.5	22.5	0.596831
GW	201	1	15	7.5	22.5	15	15	22.5	0.596831
GW	202	1	15	-15	15	15	-7.5	15	0.596831
GW	203	1	15	-7.5	15	15	0	15	0.596831
GW	204	1	15	0	15	15	7.5	15	0.596831
GW	205	1	15	7.5	15	15	15	15	0.596831
GW	206	1	15	-15	7.5	15	-7.5	7.5	0.596831
GW	207	1	15	-7.5	7.5	15	0	7.5	0.596831
GW	208	1	15	0	7.5	15	7.5	7.5	0.596831
GW	209	1	15	7.5	7.5	15	15	7.5	0.596831
GW	214	1	15	-7.5	30	15	-7.5	22.5	0.596831
GW	215	1	15	-7.5	22.5	15	-7.5	15	0.596831
GW	216	1	15	-7.5	15	15	-7.5	7.5	0.596831
GW	217	1	15	-7.5	7.5	15	-7.5	0	0.596831
GW	218	1	15	0	30	15	0	22.5	0.596831
GW	219	1	15	0	22.5	15	0	15	0.596831
GW	220	1	15	0	15	15	0	7.5	0.596831
GW	221	1	15	0	7.5	15	0	0	0.596831
GW	222	1	15	7.5	30	15	7.5	22.5	0.596831
GW	223	1	15	7.5	22.5	15	7.5	15	0.596831
GW	224	1	15	7.5	15	15	7.5	7.5	0.596831
GW	225	1	15	7.5	7.5	15	7.5	0	0.596831
GW	226	1	-5	-15	30	-5	-7.5	30	0.682093
GW	227	1	-5	-7.5	30	-5	0	30	0.682093
GW	228	1	-5	0	30	-5	7.5	30	0.682093
GW	229	1	-5	7.5	30	-5	15	30	0.682093
GW	230	1	5	-15	30	5	-7.5	30	0.682093
GW	231	1	5	-7.5	30	5	0	30	0.682093
GW	232	1	5	0	30	5	7.5	30	0.682093
GW	233	1	5	7.5	30	5	15	30	0.682093
GW	234	1	-15	-7.5	30	-5	-7.5	30	0.682093
GW	235	1	-5	-7.5	30	5	-7.5	30	0.682093
GW	236	1	5	-7.5	30	15	-7.5	30	0.682093
GW	237	1	-15	0	30	-5	0	30	0.682093
GW	238	1	-5	0	30	5	0	30	0.682093
GW	239	1	5	0	30	15	0	30	0.682093
GW	240	1	-15	7.5	30	-5	7.5	30	0.682093
GW	241	1	-5	7.5	30	5	7.5	30	0.682093
GW	242	1	5	7.5	30	15	7.5	30	0.682093
GE	1
LD	5	100	0	0	1390000
LD	5	101	0	0	1390000
LD	5	102	0	0	1390000
LD	5	103	0	0	1390000
LD	5	104	0	0	1390000
LD	5	105	0	0	1390000
LD	5	106	0	0	1390000
LD	5	107	0	0	1390000
LD	5	108	0	0	1390000
LD	5	109	0	0	1390000
LD	5	110	0	0	1390000
LD	5	111	0	0	1390000
LD	5	112	0	0	1390000
LD	5	113	0	0	1390000
LD	5	114	0	0	1390000
LD	5	115	0	0	1390000
LD	5	116	0	0	1390000
LD	5	117	0	0	1390000
LD	5	118	0	0	1390000
LD	5	119	0	0	1390000
LD	5	120	0	0	1390000
LD	5	121	0	0	1390000
LD	5	122	0	0	1390000
LD	5	123	0	0	1390000
LD	5	124	0	0	1390000
LD	5	125	0	0	1390000
LD	5	126	0	0	1390000
LD	5	127	0	0	1390000
LD	5	131	0	0	1390000
LD	5	132	0	0	1390000
LD	5	133	0	0	1390000
LD	5	134	0	0	1390000
LD	5	135	0	0	1390000
LD	5	136	0	0	1390000
LD	5	137	0	0	1390000
LD	5	138	0	0	1390000
LD	5	139	0	0	1390000
LD	5	140	0	0	1390000
LD	5	141	0	0	1390000
LD	5	142	0	0	1390000
LD	5	143	0	0	1390000
LD	5	144	0	0	1390000
LD	5	145	0	0	1390000
LD	5	146	0	0	1390000
LD	5	147	0	0	1390000
LD	5	148	0	0	1390000
LD	5	149	0	0	1390000
LD	5	150	0	0	1390000
LD	5	151	0	0	1390000
LD	5	152	0	0	1390000
LD	5	153	0	0	1390000
LD	5	154	0	0	1390000
LD	5	155	0	0	1390000
LD	5	156	0	0	1390000
LD	5	157	0	0	1390000
LD	5	158	0	0	1390000
LD	5	162	0	0	1390000
LD	5	163	0	0	1390000
LD	5	164	0	0	1390000
LD	5	165	0	0	1390000
LD	5	166	0	0	1390000
LD	5	167	0	0	1390000
LD	5	168	0	0	1390000
LD	5	169	0	0	1390000
LD	5	170	0	0	1390000
LD	5	171	0	0	1390000
LD	5	172	0	0	1390000
LD	5	173	0	0	1390000
LD	5	174	0	0	1390000
LD	5	175	0	0	1390000
LD	5	176	0	0	1390000
LD	5	177	0	0	1390000
LD	5	182	0	0	1390000
LD	5	183	0	0	1390000
LD	5	184	0	0	1390000
LD	5	185	0	0	1390000
LD	5	186	0	0	1390000
LD	5	187	0	0	1390000
LD	5	188	0	0	1390000
LD	5	189	0	0	1390000
LD	5	190	0	0	1390000
LD	5	191	0	0	1390000
LD	5	192	0	0	1390000
LD	5	193	0	0	1390000
LD	5	194	0	0	1390000
LD	5	195	0	0	1390000
LD	5	196	0	0	1390000
LD	5	197	0	0	1390000
LD	5	198	0	0	1390000
LD	5	199	0	0	1390000
LD	5	200	0	0	1390000
LD	5	201	0	0	1390000
LD	5	202	0	0	1390000
LD	5	203	0	0	1390000
LD	5	204	0	0	1390000
LD	5	205	0	0	1390000
LD	5	206	0	0	1390000
LD	5	207	0	0	1390000
LD	5	208	0	0	1390000
LD	5	209	0	0	1390000
LD	5	214	0	0	1390000
LD	5	215	0	0	1390000
LD	5	216	0	0	1390000
LD	5	217	0	0	1390000
LD	5	218	0	0	1390000
LD	5	219	0	0	1390000
LD	5	220	0	0	1390000
LD	5	221	0	0	1390000
LD	5	222	0	0	1390000
LD	5	223	0	0	1390000
LD	5	224	0	0	1390000
LD	5	225	0	0	1390000
LD	5	226	0	0	1390000
LD	5	227	0	0	1390000
LD	5	228	0	0	1390000
LD	5	229	0	0	1390000
LD	5	230	0	0	1390000
LD	5	231	0	0	1390000
LD	5	232	0	0	1390000
LD	5	233	0	0	1390000
LD	5	234	0	0	1390000
LD	5	235	0	0	1390000
LD	5	236	0	0	1390000
LD	5	237	0	0	1390000
LD	5	238	0	0	1390000
LD	5	239	0	0	1390000
LD	5	240	0	0	1390000
LD	5	241	0	0	1390000
LD	5	242	0	0	1390000
GN	2	0	0	0	13	0.005
EK
EX	6	100	1	0	1	0	0
FR	0	0	0	0	10	0
EN
