Version 4
SHEET 1 1140 716
WIRE 448 -16 384 -16
WIRE 592 -16 528 -16
WIRE -544 32 -704 32
WIRE -400 32 -464 32
WIRE -272 32 -400 32
WIRE -48 32 -192 32
WIRE 32 32 -48 32
WIRE 192 32 112 32
WIRE 384 32 384 -16
WIRE 384 32 192 32
WIRE 592 32 592 -16
WIRE 1040 32 592 32
WIRE 384 80 384 32
WIRE 448 80 384 80
WIRE 592 80 592 32
WIRE 592 80 528 80
WIRE -704 128 -704 32
WIRE -400 128 -400 32
WIRE -48 128 -48 32
WIRE -528 144 -528 80
WIRE -480 144 -480 80
WIRE -256 144 -256 80
WIRE -208 144 -208 80
WIRE 192 144 192 32
WIRE 1040 144 1040 32
WIRE -704 336 -704 208
WIRE -400 336 -400 192
WIRE -400 336 -704 336
WIRE -224 336 -400 336
WIRE -48 336 -48 208
WIRE -48 336 -224 336
WIRE 192 336 192 208
WIRE 192 336 -48 336
WIRE 1040 336 1040 224
WIRE 1040 336 192 336
WIRE -224 384 -224 336
WIRE -448 512 -528 512
WIRE -128 512 -224 512
WIRE -528 528 -528 512
WIRE -224 528 -224 512
WIRE -528 544 -528 528
WIRE -528 624 -528 608
WIRE -496 624 -528 624
WIRE -448 624 -496 624
WIRE -224 624 -224 608
WIRE -176 624 -224 624
WIRE -128 624 -176 624
WIRE -496 656 -496 624
WIRE -176 656 -176 624
FLAG -224 384 0
FLAG -208 144 Gen+
IOPIN -208 144 BiDir
FLAG -256 144 Gen-
IOPIN -256 144 BiDir
FLAG -128 512 Gen+
IOPIN -128 512 BiDir
FLAG -128 624 Gen-
IOPIN -128 624 BiDir
FLAG -448 512 Charge+
IOPIN -448 512 BiDir
FLAG -448 624 Charge-
IOPIN -448 624 BiDir
FLAG -480 144 Charge+
IOPIN -480 144 BiDir
FLAG -528 144 Charge-
IOPIN -528 144 BiDir
FLAG -496 656 0
FLAG -176 656 0
SYMBOL res -64 112 R0
WINDOW 0 39 39 Left 2
SYMATTR InstName R1-Gen
SYMATTR Value 50
SYMBOL res 128 16 R90
WINDOW 0 0 56 VBottom 2
WINDOW 3 32 56 VTop 2
SYMATTR InstName R2-Gen
SYMATTR Value 15
SYMBOL res 544 -32 R90
WINDOW 0 0 56 VBottom 2
WINDOW 3 32 56 VTop 2
SYMATTR InstName R4
SYMATTR Value 25
SYMBOL res 544 64 R90
WINDOW 0 0 56 VBottom 2
WINDOW 3 32 56 VTop 2
SYMATTR InstName R5
SYMATTR Value 25
SYMBOL cap 176 144 R0
WINDOW 3 30 54 Left 2
SYMATTR Value 0.1µF
SYMATTR InstName C1-Gen
SYMBOL cap -416 128 R0
SYMATTR InstName C-Charge
SYMATTR Value 20µF
SYMBOL voltage -704 112 R0
WINDOW 123 0 0 Left 0
WINDOW 39 0 0 Left 0
SYMATTR InstName V-charge
SYMATTR Value 10kV
SYMBOL res 1024 128 R0
SYMATTR InstName R-load
SYMATTR Value 10k
SYMBOL sw -288 32 R270
WINDOW 0 42 16 Left 2
SYMATTR InstName S-Generator
SYMATTR Value SW-G2
SYMBOL sw -560 32 R270
SYMATTR InstName S-Charge
SYMATTR Value SW-G1
SYMBOL voltage -528 512 R0
WINDOW 0 28 26 Left 2
WINDOW 3 -209 -45 Left 2
WINDOW 123 0 0 Left 0
WINDOW 39 0 0 Left 0
SYMATTR InstName V-chargecontrole
SYMATTR Value PULSE(0 10 0 0.01usec 0.01usec 0.05usec)
SYMBOL voltage -224 512 R0
WINDOW 0 32 26 Left 2
WINDOW 3 6 -43 Left 2
WINDOW 123 0 0 Left 0
WINDOW 39 0 0 Left 0
SYMATTR InstName V-generator-controle
SYMATTR Value PULSE(0 10 0.1usec 0.01usec 0.01usec 10s)
TEXT -672 -280 Left 4 ;ITU-T 10/700 Surge Generator
TEXT 248 -16 Left 2 ;Output
TEXT 1032 -24 Left 2 ;Load
TEXT -738 700 Left 2 !.tran 1msec
TEXT -568 -168 Left 2 !.Model SW-G1 SW(Ron=1m Roff=100Meg Vt=5)
TEXT -232 -104 Left 2 !.Model SW-G2 SW(Ron=1m Roff=100Meg Vt=5)
